ieee9500/original_dss/LoadXfmrCodes.dss
! Definitions of the 1-phase "center tapped" 120/240V service transformers.
! These transformers are defined as 3-winding transformers (as they are in reality)
! The primary winding is connected 7200V line-to-neutral on one of the phases.
! The secondary windings are consistently connected 1.0 and 0.2 respectively to get the polarity correct.

New XfmrCode.CT5   phases=1 windings=3 kvs=[7.2 0.12 0.12] kVAs=[  5.0   5.0   5.0] %imag=0.5 %Rs=[0.6 1.2 1.2] %noloadloss=.2 Xhl=2.04  Xht=2.04  Xlt=1.36
New XfmrCode.CT10  phases=1 windings=3 kvs=[7.2 0.12 0.12] kVAs=[ 10.0  10.0  10.0] %imag=0.5 %Rs=[0.6 1.2 1.2] %noloadloss=.2 Xhl=2.04  Xht=2.04  Xlt=1.36
New XfmrCode.CT15  phases=1 windings=3 kvs=[7.2 0.12 0.12] kVAs=[ 15.0  15.0  15.0] %imag=0.5 %Rs=[0.6 1.2 1.2] %noloadloss=.2 Xhl=2.04  Xht=2.04  Xlt=1.36
New XfmrCode.CT25  phases=1 windings=3 kvs=[7.2 0.12 0.12] kVAs=[ 25.0  25.0  25.0] %imag=0.5 %Rs=[0.6 1.2 1.2] %noloadloss=.2 Xhl=2.04  Xht=2.04  Xlt=1.36
New XfmrCode.CT37  phases=1 windings=3 kvs=[7.2 0.12 0.12] kVAs=[ 37.5  37.5  37.5] %imag=0.5 %Rs=[0.6 1.2 1.2] %noloadloss=.2 Xhl=2.04  Xht=2.04  Xlt=1.36
New XfmrCode.CT50  phases=1 windings=3 kvs=[7.2 0.12 0.12] kVAs=[ 50.0  50.0  50.0] %imag=0.5 %Rs=[0.6 1.2 1.2] %noloadloss=.2 Xhl=2.04  Xht=2.04  Xlt=1.36
New XfmrCode.CT75  phases=1 windings=3 kvs=[7.2 0.12 0.12] kVAs=[ 75.0  75.0  75.0] %imag=0.5 %Rs=[0.6 1.2 1.2] %noloadloss=.2 Xhl=2.04  Xht=2.04  Xlt=1.36
New XfmrCode.CT100 phases=1 windings=3 kvs=[7.2 0.12 0.12] kVAs=[100.0 100.0 100.0] %imag=0.5 %Rs=[0.6 1.2 1.2] %noloadloss=.2 Xhl=2.04  Xht=2.04  Xlt=1.36
New XfmrCode.CT250 phases=1 windings=3 kvs=[7.2 0.12 0.12] kVAs=[250.0 250.0 250.0] %imag=0.5 %Rs=[0.6 1.2 1.2] %noloadloss=.2 Xhl=2.04  Xht=2.04  Xlt=1.36

New Transformer.T21396254A        XfmrCode=CT15    buses=[L2804253.1 X2804253A.1.0 X2804253A.0.2]
New Transformer.T5321859B         XfmrCode=CT25    buses=[L3254213.2 X3254213B.1.0 X3254213B.0.2]
New Transformer.T5391741B         XfmrCode=CT25    buses=[L3216339.2 X3216339B.1.0 X3216339B.0.2]
New Transformer.T5293672A         XfmrCode=CT15    buses=[L2954355.1 X2954355A.1.0 X2954355A.0.2]
New Transformer.T21474711C        XfmrCode=CT15    buses=[L2861197.3 X2861197C.1.0 X2861197C.0.2]
New Transformer.T5260488A         XfmrCode=CT37    buses=[L2842379.1 X2842379A.1.0 X2842379A.0.2]
New Transformer.T5391758B         XfmrCode=CT15    buses=[L2841636.2 X2841636B.1.0 X2841636B.0.2]
New Transformer.T228091193A       XfmrCode=CT50    buses=[L3047289.1 X3047289A.1.0 X3047289A.0.2]
New Transformer.T228091193B       XfmrCode=CT50    buses=[L3047289.2 X3047289B.1.0 X3047289B.0.2]
New Transformer.T228091193C       XfmrCode=CT50    buses=[L3047289.3 X3047289C.1.0 X3047289C.0.2]
New Transformer.T5302862C         XfmrCode=CT15    buses=[L3085399.3 X3085399C.1.0 X3085399C.0.2]
New Transformer.T21236413B        XfmrCode=CT50    buses=[L3085391.2 X3085391B.1.0 X3085391B.0.2]
New Transformer.T5302468A         XfmrCode=CT10    buses=[L2897778.1 X2897778A.1.0 X2897778A.0.2]
New Transformer.T5294787A         XfmrCode=CT10    buses=[L3197647.1 X3197647A.1.0 X3197647A.0.2]
New Transformer.T5157715B         XfmrCode=CT10    buses=[L2936275.2 X2936275B.1.0 X2936275B.0.2]
New Transformer.T5355768B         XfmrCode=CT25    buses=[L2729408.2 X2729408B.1.0 X2729408B.0.2]
New Transformer.T5138562A         XfmrCode=CT25    buses=[L2673310.1 X2673310A.1.0 X2673310A.0.2]
New Transformer.T5355934A         XfmrCode=CT10    buses=[L3048212.1 X3048212A.1.0 X3048212A.0.2]
New Transformer.T5293483A         XfmrCode=CT25    buses=[L3104133.1 X3104133A.1.0 X3104133A.0.2]
New Transformer.T21399762A        XfmrCode=CT15    buses=[L2879087.1 X2879087A.1.0 X2879087A.0.2]
New Transformer.T5138650C         XfmrCode=CT10    buses=[L2710510.3 X2710510C.1.0 X2710510C.0.2]
New Transformer.T5323242B         XfmrCode=CT25    buses=[L3122810.2 X3122810B.1.0 X3122810B.0.2]
New Transformer.T28127090C        XfmrCode=CT25    buses=[L2954352.3 X2954352C.1.0 X2954352C.0.2]
New Transformer.T5138769A         XfmrCode=CT10    buses=[L2729411.1 X2729411A.1.0 X2729411A.0.2]
New Transformer.T5338896A         XfmrCode=CT15    buses=[L3178971.1 X3178971A.1.0 X3178971A.0.2]
New Transformer.T5355586B         XfmrCode=CT25    buses=[L3254234.2 X3254234B.1.0 X3254234B.0.2]
New Transformer.T5293471A         XfmrCode=CT25    buses=[293471.1   X_293471A.1.0 X_293471A.0.2]
New Transformer.T5293471B         XfmrCode=CT25    buses=[293471.2   X_293471B.1.0 X_293471B.0.2]
New Transformer.T5293471C         XfmrCode=CT25    buses=[293471.3   X_293471C.1.0 X_293471C.0.2]
New Transformer.T5338954A         XfmrCode=CT25    buses=[L2860482.1 X2860482A.1.0 X2860482A.0.2]
New Transformer.T21459629C        XfmrCode=CT75    buses=[L2763811.3 X2763811C.1.0 X2763811C.0.2]
New Transformer.T5260562A         XfmrCode=CT37    buses=[L3251799.1 X3251799A.1.0 X3251799A.0.2]
New Transformer.T21393486C        XfmrCode=CT15    buses=[L2898526.3 X2898526C.1.0 X2898526C.0.2]
New Transformer.T5293518B         XfmrCode=CT25    buses=[L2897780.2 X2897780B.1.0 X2897780B.0.2]
New Transformer.T226195194C       XfmrCode=CT25    buses=[L3027124.3 X3027124C.1.0 X3027124C.0.2]
New Transformer.T21383494B        XfmrCode=CT25    buses=[L2954361.2 X2954361B.1.0 X2954361B.0.2]
New Transformer.T5251863C         XfmrCode=CT25    buses=[L2745811.3 X2745811C.1.0 X2745811C.0.2]
New Transformer.T5293645A         XfmrCode=CT25    buses=[L2841633.1 X2841633A.1.0 X2841633A.0.2]
New Transformer.T21482431A        XfmrCode=CT15    buses=[L2917359.1 X2917359A.1.0 X2917359A.0.2]
New Transformer.T5293480A         XfmrCode=CT15    buses=[L2748158.1 X2748158A.1.0 X2748158A.0.2]
New Transformer.T21469911A        XfmrCode=CT25    buses=[L2955047.1 X2955047A.1.0 X2955047A.0.2]
New Transformer.T5355432C         XfmrCode=CT37    buses=[L3122837.3 X3122837C.1.0 X3122837C.0.2]
New Transformer.T5323285B         XfmrCode=CT25    buses=[L2804269.2 X2804269B.1.0 X2804269B.0.2]
New Transformer.T226192954C       XfmrCode=CT15    buses=[L3157708.3 X3157708C.1.0 X3157708C.0.2]
New Transformer.T5207292C         XfmrCode=CT15    buses=[L3179682.3 X3179682C.1.0 X3179682C.0.2]
New Transformer.T5337672B         XfmrCode=CT15    buses=[L2822877.2 X2822877B.1.0 X2822877B.0.2]
New Transformer.T5442373C         XfmrCode=CT25    buses=[L3141393.3 X3141393C.1.0 X3141393C.0.2]
New Transformer.T21470405A        XfmrCode=CT37    buses=[L2897801.1 X2897801A.1.0 X2897801A.0.2]
New Transformer.T5218474A         XfmrCode=CT50    buses=[L3217056.1 X3217056A.1.0 X3217056A.0.2]
New Transformer.T5218472A         XfmrCode=CT25    buses=[L2936270.1 X2936270A.1.0 X2936270A.0.2]
New Transformer.T5356014A         XfmrCode=CT10    buses=[L3235249.1 X3235249A.1.0 X3235249A.0.2]
New Transformer.T5260528C         XfmrCode=CT25    buses=[L3217052.3 X3217052C.1.0 X3217052C.0.2]
New Transformer.T5355933A         XfmrCode=CT10    buses=[L2916598.1 X2916598A.1.0 X2916598A.0.2]
New Transformer.T5138649A         XfmrCode=CT25    buses=[L3048206.1 X3048206A.1.0 X3048206A.0.2]
New Transformer.T5391978C         XfmrCode=CT25    buses=[L3141402.3 X3141402C.1.0 X3141402C.0.2]
New Transformer.T5138642A         XfmrCode=CT15    buses=[L3235256.1 X3235256A.1.0 X3235256A.0.2]
New Transformer.T21149420A        XfmrCode=CT25    buses=[L3178973.1 X3178973A.1.0 X3178973A.0.2]
New Transformer.T21382992A        XfmrCode=CT25    buses=[L3197654.1 X3197654A.1.0 X3197654A.0.2]
New Transformer.T5338958C         XfmrCode=CT25    buses=[L3066809.3 X3066809C.1.0 X3066809C.0.2]
New Transformer.T5355585B         XfmrCode=CT15    buses=[L2766742.2 X2766742B.1.0 X2766742B.0.2]
New Transformer.T5338900A         XfmrCode=CT15    buses=[L2991908.1 X2991908A.1.0 X2991908A.0.2]
New Transformer.T5323389B         XfmrCode=CT25    buses=[L3065750.2 X3065750B.1.0 X3065750B.0.2]
New Transformer.T28127253A        XfmrCode=CT37    buses=[L3085401.1 X3085401A.1.0 X3085401A.0.2]
New Transformer.T21397067A        XfmrCode=CT15    buses=[L2729413.1 X2729413A.1.0 X2729413A.0.2]
New Transformer.T5260520B         XfmrCode=CT5     buses=[L3254915.2 X3254915B.1.0 X3254915B.0.2]
New Transformer.T5323250B         XfmrCode=CT15    buses=[L2748131.2 X2748131B.1.0 X2748131B.0.2]
New Transformer.T5337659C         XfmrCode=CT25    buses=[L3066810.3 X3066810C.1.0 X3066810C.0.2]
New Transformer.T28118903B        XfmrCode=CT25    buses=[L2973146.2 X2973146B.1.0 X2973146B.0.2]
New Transformer.T21398646B        XfmrCode=CT25    buses=[L2973180.2 X2973180B.1.0 X2973180B.0.2]
New Transformer.T5293656B         XfmrCode=CT15    buses=[L2973167.2 X2973167B.1.0 X2973167B.0.2]
New Transformer.T5338910C         XfmrCode=CT25    buses=[L2841621.3 X2841621C.1.0 X2841621C.0.2]
New Transformer.T28129923C        XfmrCode=CT15    buses=[L3123509.3 X3123509C.1.0 X3123509C.0.2]
New Transformer.T5337716A         XfmrCode=CT15    buses=[L2841627.1 X2841627A.1.0 X2841627A.0.2]
New Transformer.T5337698B         XfmrCode=CT10    buses=[L3235250.2 X3235250B.1.0 X3235250B.0.2]
New Transformer.T2224386946A      XfmrCode=CT25    buses=[L3728037.1 X3728037A.1.0 X3728037A.0.2]
New Transformer.T5330121B         XfmrCode=CT10    buses=[L3142078.2 X3142078B.1.0 X3142078B.0.2]
New Transformer.T5323252B         XfmrCode=CT15    buses=[L2879066.2 X2879066B.1.0 X2879066B.0.2]
New Transformer.T5441331C         XfmrCode=CT25    buses=[L3235254.3 X3235254C.1.0 X3235254C.0.2]
New Transformer.T5260474A         XfmrCode=CT25    buses=[L2917330.1 X2917330A.1.0 X2917330A.0.2]
New Transformer.T5355376B         XfmrCode=CT10    buses=[L2914323.2 X2914323B.1.0 X2914323B.0.2]
New Transformer.T5338944C         XfmrCode=CT10    buses=[L3197640.3 X3197640C.1.0 X3197640C.0.2]
New Transformer.T5260640C         XfmrCode=CT15    buses=[L3179673.3 X3179673C.1.0 X3179673C.0.2]
New Transformer.T5274997C         XfmrCode=CT25    buses=[L3048228.3 X3048228C.1.0 X3048228C.0.2]
New Transformer.T5138372C         XfmrCode=CT10    buses=[L3104126.3 X3104126C.1.0 X3104126C.0.2]
New Transformer.T226308721A       XfmrCode=CT50    buses=[L2990098.1 X2990098A.1.0 X2990098A.0.2]
New Transformer.T21380616A        XfmrCode=CT25    buses=[L2879067.1 X2879067A.1.0 X2879067A.0.2]
New Transformer.T226193170A       XfmrCode=CT25    buses=[L3176656.1 X3176656A.1.0 X3176656A.0.2]
New Transformer.T5293666C         XfmrCode=CT10    buses=[L2710532.3 X2710532C.1.0 X2710532C.0.2]
New Transformer.T5338994B         XfmrCode=CT50    buses=[L3160115.2 X3160115B.1.0 X3160115B.0.2]
New Transformer.T228665517C       XfmrCode=CT37    buses=[L3103822.3 X3103822C.1.0 X3103822C.0.2]
New Transformer.T5260647A         XfmrCode=CT10    buses=[L2805034.1 X2805034A.1.0 X2805034A.0.2]
New Transformer.T226115278A       XfmrCode=CT15    buses=[L3157167.1 X3157167A.1.0 X3157167A.0.2]
New Transformer.T5338977A         XfmrCode=CT10    buses=[L2916620.1 X2916620A.1.0 X2916620A.0.2]
New Transformer.T5338977B         XfmrCode=CT10    buses=[L2916620.2 X2916620B.1.0 X2916620B.0.2]
New Transformer.T5338977C         XfmrCode=CT10    buses=[L2916620.3 X2916620C.1.0 X2916620C.0.2]
New Transformer.T5321876A         XfmrCode=CT15    buses=[L3027132.1 X3027132A.1.0 X3027132A.0.2]
New Transformer.T5275001C         XfmrCode=CT15    buses=[L2822862.3 X2822862C.1.0 X2822862C.0.2]
New Transformer.T227411650C       XfmrCode=CT25    buses=[L2937757.3 X2937757C.1.0 X2937757C.0.2]
New Transformer.T21396699B        XfmrCode=CT25    buses=[L2860483.2 X2860483B.1.0 X2860483B.0.2]
New Transformer.T5302412A         XfmrCode=CT37    buses=[L3048210.1 X3048210A.1.0 X3048210A.0.2]
New Transformer.T2223661373A      XfmrCode=CT25    buses=[L3312692.1 X3312692A.1.0 X3312692A.0.2]
New Transformer.T226881700A       XfmrCode=CT25    buses=[L3251854.1 X3251854A.1.0 X3251854A.0.2]
New Transformer.T5355777B         XfmrCode=CT25    buses=[L3085398.2 X3085398B.1.0 X3085398B.0.2]
New Transformer.T5337671A         XfmrCode=CT15    buses=[L3254207.1 X3254207A.1.0 X3254207A.0.2]
New Transformer.T5339018A         XfmrCode=CT15    buses=[L2729424.1 X2729424A.1.0 X2729424A.0.2]
New Transformer.T21398676A        XfmrCode=CT15    buses=[L3066816.1 X3066816A.1.0 X3066816A.0.2]
New Transformer.T5138469C         XfmrCode=CT15    buses=[L2785518.3 X2785518C.1.0 X2785518C.0.2]
New Transformer.T5138373C         XfmrCode=CT15    buses=[L3029503.3 X3029503C.1.0 X3029503C.0.2]
New Transformer.T5391995A         XfmrCode=CT25    buses=[L2748140.1 X2748140A.1.0 X2748140A.0.2]
New Transformer.T225533423C       XfmrCode=CT15    buses=[L2891575.3 X2891575C.1.0 X2891575C.0.2]
New Transformer.T5260568C         XfmrCode=CT15    buses=[L2842329.3 X2842329C.1.0 X2842329C.0.2]
New Transformer.T5138754B         XfmrCode=CT37    buses=[L3254212.2 X3254212B.1.0 X3254212B.0.2]
New Transformer.T5260552A         XfmrCode=CT50    buses=[L3198348.1 X3198348A.1.0 X3198348A.0.2]
New Transformer.T5338968C         XfmrCode=CT37    buses=[L3178979.3 X3178979C.1.0 X3178979C.0.2]
New Transformer.T5247061A         XfmrCode=CT25    buses=[L2879054.1 X2879054A.1.0 X2879054A.0.2]
New Transformer.T5391746B         XfmrCode=CT10    buses=[L3085388.2 X3085388B.1.0 X3085388B.0.2]
New Transformer.T5338941C         XfmrCode=CT15    buses=[L2991914.3 X2991914C.1.0 X2991914C.0.2]
New Transformer.T5338982B         XfmrCode=CT25    buses=[L2785534.2 X2785534B.1.0 X2785534B.0.2]
New Transformer.T5339008B         XfmrCode=CT15    buses=[L3122835.2 X3122835B.1.0 X3122835B.0.2]
New Transformer.T21391094A        XfmrCode=CT15    buses=[L3085395.1 X3085395A.1.0 X3085395A.0.2]
New Transformer.T5138581A         XfmrCode=CT25    buses=[L2879064.1 X2879064A.1.0 X2879064A.0.2]
New Transformer.T5338979B         XfmrCode=CT10    buses=[L3066814.2 X3066814B.1.0 X3066814B.0.2]
New Transformer.T226308720A       XfmrCode=CT75    buses=[L2821087.1 X2821087A.1.0 X2821087A.0.2]
New Transformer.T5355595B         XfmrCode=CT10    buses=[L2860479.2 X2860479B.1.0 X2860479B.0.2]
New Transformer.T2224387113A      XfmrCode=CT37    buses=[L3728042.1 X3728042A.1.0 X3728042A.0.2]
New Transformer.T21397005A        XfmrCode=CT37    buses=[L2935557.1 X2935557A.1.0 X2935557A.0.2]
New Transformer.T5274985C         XfmrCode=CT15    buses=[L2822864.3 X2822864C.1.0 X2822864C.0.2]
New Transformer.T5321836A         XfmrCode=CT15    buses=[L3235247.1 X3235247A.1.0 X3235247A.0.2]
New Transformer.T225673440A       XfmrCode=CT25    buses=[L3251807.1 X3251807A.1.0 X3251807A.0.2]
New Transformer.T5337641C         XfmrCode=CT15    buses=[L2804282.3 X2804282C.1.0 X2804282C.0.2]
New Transformer.T5293659C         XfmrCode=CT15    buses=[L2935560.3 X2935560C.1.0 X2935560C.0.2]
New Transformer.T5339011B         XfmrCode=CT15    buses=[L3104145.2 X3104145B.1.0 X3104145B.0.2]
New Transformer.T5218473A         XfmrCode=CT25    buses=[L3086078.1 X3086078A.1.0 X3086078A.0.2]
New Transformer.T28121587A        XfmrCode=CT15    buses=[L2860477.1 X2860477A.1.0 X2860477A.0.2]
New Transformer.T2224230689C      XfmrCode=CT75    buses=[L3645811.3 X3645811C.1.0 X3645811C.0.2]
New Transformer.T227734175B       XfmrCode=CT25    buses=[L3102793.2 X3102793B.1.0 X3102793B.0.2]
New Transformer.T5337694B         XfmrCode=CT15    buses=[L2991910.2 X2991910B.1.0 X2991910B.0.2]
New Transformer.T21357515A        XfmrCode=CT25    buses=[L2710511.1 X2710511A.1.0 X2710511A.0.2]
New Transformer.T28127390C        XfmrCode=CT15    buses=[L2860486.3 X2860486C.1.0 X2860486C.0.2]
New Transformer.T21387929C        XfmrCode=CT15    buses=[L2935551.3 X2935551C.1.0 X2935551C.0.2]
New Transformer.T5355605B         XfmrCode=CT25    buses=[L2729409.2 X2729409B.1.0 X2729409B.0.2]
New Transformer.T5260630B         XfmrCode=CT15    buses=[L2973833.2 X2973833B.1.0 X2973833B.0.2]
New Transformer.T5337660C         XfmrCode=CT25    buses=[L2897769.3 X2897769C.1.0 X2897769C.0.2]
New Transformer.T5293663C         XfmrCode=CT15    buses=[L3216368.3 X3216368C.1.0 X3216368C.0.2]
New Transformer.T5138719A         XfmrCode=CT25    buses=[L2860490.1 X2860490A.1.0 X2860490A.0.2]
New Transformer.T5251858C         XfmrCode=CT25    buses=[L2861158.3 X2861158C.1.0 X2861158C.0.2]
New Transformer.T5302804C         XfmrCode=CT37    buses=[L3141399.3 X3141399C.1.0 X3141399C.0.2]
New Transformer.T5356062B         XfmrCode=CT25    buses=[L3122816.2 X3122816B.1.0 X3122816B.0.2]
New Transformer.T5346639C         XfmrCode=CT15    buses=[L2992556.3 X2992556C.1.0 X2992556C.0.2]
New Transformer.T5302508C         XfmrCode=CT25    buses=[L2897779.3 X2897779C.1.0 X2897779C.0.2]
New Transformer.T5321881A         XfmrCode=CT25    buses=[L2970811.1 X2970811A.1.0 X2970811A.0.2]
New Transformer.T5355433C         XfmrCode=CT50    buses=[L2991933.3 X2991933C.1.0 X2991933C.0.2]
New Transformer.T21398402A        XfmrCode=CT15    buses=[L2729428.1 X2729428A.1.0 X2729428A.0.2]
New Transformer.T21398563A        XfmrCode=CT25    buses=[L3254216.1 X3254216A.1.0 X3254216A.0.2]
New Transformer.T21386771B        XfmrCode=CT15    buses=[L2897807.2 X2897807B.1.0 X2897807B.0.2]
New Transformer.T5260648A         XfmrCode=CT25    buses=[L2898522.1 X2898522A.1.0 X2898522A.0.2]
New Transformer.T5293490C         XfmrCode=CT25    buses=[L3048230.3 X3048230C.1.0 X3048230C.0.2]
New Transformer.T225901711A       XfmrCode=CT15    buses=[L3195327.1 X3195327A.1.0 X3195327A.0.2]
New Transformer.T227902981A       XfmrCode=CT37    buses=[L3047058.1 X3047058A.1.0 X3047058A.0.2]
New Transformer.T5321853B         XfmrCode=CT25    buses=[L2673313.2 X2673313B.1.0 X2673313B.0.2]
New Transformer.T2224237653A      XfmrCode=CT37    buses=[L3649302.1 X3649302A.1.0 X3649302A.0.2]
New Transformer.T2224386592A      XfmrCode=CT25    buses=[L3729297.1 X3729297A.1.0 X3729297A.0.2]
New Transformer.T5391990A         XfmrCode=CT15    buses=[L2858163.1 X2858163A.1.0 X2858163A.0.2]
New Transformer.T226881057B       XfmrCode=CT15    buses=[L3214112.2 X3214112B.1.0 X3214112B.0.2]
New Transformer.T225533531A       XfmrCode=CT25    buses=[L2685805.1 X2685805A.1.0 X2685805A.0.2]
New Transformer.T5247056A         XfmrCode=CT15    buses=[L2991912.1 X2991912A.1.0 X2991912A.0.2]
New Transformer.T227905262A       XfmrCode=CT25    buses=[L3140238.1 X3140238A.1.0 X3140238A.0.2]
New Transformer.T21469960B        XfmrCode=CT25    buses=[L3066830.2 X3066830B.1.0 X3066830B.0.2]
New Transformer.T5260511C         XfmrCode=CT15    buses=[L3160878.3 X3160878C.1.0 X3160878C.0.2]
New Transformer.T5138346C         XfmrCode=CT15    buses=[L2916609.3 X2916609C.1.0 X2916609C.0.2]
New Transformer.T225806974A       XfmrCode=CT10    buses=[L2876814.1 X2876814A.1.0 X2876814A.0.2]
New Transformer.T5355944B         XfmrCode=CT25    buses=[L3197646.2 X3197646B.1.0 X3197646B.0.2]
New Transformer.T5138569A         XfmrCode=CT15    buses=[L2973151.1 X2973151A.1.0 X2973151A.0.2]
New Transformer.T5337625C         XfmrCode=CT25    buses=[L3197627.3 X3197627C.1.0 X3197627C.0.2]
New Transformer.T5321874A         XfmrCode=CT25    buses=[L2764412.1 X2764412A.1.0 X2764412A.0.2]
New Transformer.T5337713C         XfmrCode=CT15    buses=[L2766716.3 X2766716C.1.0 X2766716C.0.2]
New Transformer.T5391757B         XfmrCode=CT10    buses=[L2991917.2 X2991917B.1.0 X2991917B.0.2]
New Transformer.T5338998B         XfmrCode=CT25    buses=[L3254229.2 X3254229B.1.0 X3254229B.0.2]
New Transformer.T5356064B         XfmrCode=CT25    buses=[L2935556.2 X2935556B.1.0 X2935556B.0.2]
New Transformer.T5323275B         XfmrCode=CT25    buses=[L3197660.2 X3197660B.1.0 X3197660B.0.2]
New Transformer.T21389237A        XfmrCode=CT25    buses=[L2989565.1 X2989565A.1.0 X2989565A.0.2]
New Transformer.T2224230615C      XfmrCode=CT50    buses=[L3645809.3 X3645809C.1.0 X3645809C.0.2]
New Transformer.T5260463B         XfmrCode=CT15    buses=[L3086075.2 X3086075B.1.0 X3086075B.0.2]
New Transformer.T5302402A         XfmrCode=CT15    buses=[L3122824.1 X3122824A.1.0 X3122824A.0.2]
New Transformer.T5355599B         XfmrCode=CT25    buses=[L3216338.2 X3216338B.1.0 X3216338B.0.2]
New Transformer.T21393412B        XfmrCode=CT25    buses=[L2729405.2 X2729405B.1.0 X2729405B.0.2]
New Transformer.T5356807A         XfmrCode=CT25    buses=[L2823545.1 X2823545A.1.0 X2823545A.0.2]
New Transformer.T5293660B         XfmrCode=CT25    buses=[L2916610.2 X2916610B.1.0 X2916610B.0.2]
New Transformer.T227731863A       XfmrCode=CT37    buses=[L3177665.1 X3177665A.1.0 X3177665A.0.2]
New Transformer.T227760021A       XfmrCode=CT50    buses=[L2803199.1 X2803199A.1.0 X2803199A.0.2]
New Transformer.T227760021B       XfmrCode=CT50    buses=[L2803199.2 X2803199B.1.0 X2803199B.0.2]
New Transformer.T227760021C       XfmrCode=CT50    buses=[L2803199.3 X2803199C.1.0 X2803199C.0.2]
New Transformer.T5391980A         XfmrCode=CT15    buses=[L2691952.1 X2691952A.1.0 X2691952A.0.2]
New Transformer.T5338984A         XfmrCode=CT25    buses=[L2748144.1 X2748144A.1.0 X2748144A.0.2]
New Transformer.T5337702B         XfmrCode=CT25    buses=[L3029504.2 X3029504B.1.0 X3029504B.0.2]
New Transformer.T5337696B         XfmrCode=CT15    buses=[L3197635.2 X3197635B.1.0 X3197635B.0.2]
New Transformer.T225577437C       XfmrCode=CT25    buses=[L2724120.3 X2724120C.1.0 X2724120C.0.2]
New Transformer.T5337676A         XfmrCode=CT25    buses=[L3235244.1 X3235244A.1.0 X3235244A.0.2]
New Transformer.T5323418A         XfmrCode=CT25    buses=[L2804254.1 X2804254A.1.0 X2804254A.0.2]
New Transformer.T226192936B       XfmrCode=CT25    buses=[L2820531.2 X2820531B.1.0 X2820531B.0.2]
...

// new transformers for the 9500-node system

New Transformer.T1108403A         XfmrCode=CT37    buses=[M1108403.1 X1108403A.1.0 X1108403A.0.2]
New Transformer.T1108403B         XfmrCode=CT37    buses=[M1108403.2 X1108403B.1.0 X1108403B.0.2]
New Transformer.T1108403C         XfmrCode=CT37    buses=[M1108403.3 X1108403C.1.0 X1108403C.0.2]
New Transformer.T1108404A         XfmrCode=CT50    buses=[M1108404.1 X1108404A.1.0 X1108404A.0.2]
New Transformer.T1108404B         XfmrCode=CT50    buses=[M1108404.2 X1108404B.1.0 X1108404B.0.2]
New Transformer.T1108404C         XfmrCode=CT50    buses=[M1108404.3 X1108404C.1.0 X1108404C.0.2]
New Transformer.T1108405A         XfmrCode=CT37    buses=[M1108405.1 X1108405A.1.0 X1108405A.0.2]
New Transformer.T1108405B         XfmrCode=CT37    buses=[M1108405.2 X1108405B.1.0 X1108405B.0.2]
New Transformer.T1108405C         XfmrCode=CT37    buses=[M1108405.3 X1108405C.1.0 X1108405C.0.2]
New Transformer.T1108406A         XfmrCode=CT37    buses=[M1108406.1 X1108406A.1.0 X1108406A.0.2]
New Transformer.T1108406B         XfmrCode=CT37    buses=[M1108406.2 X1108406B.1.0 X1108406B.0.2]
New Transformer.T1108407B         XfmrCode=CT50    buses=[M1108407.2 X1108407B.1.0 X1108407B.0.2]
New Transformer.T6061820B         XfmrCode=CT75    buses=[M1108410.2 X1108410B.1.0 X1108410B.0.2]


!Load Xfmrs for S2 New Neighborhood
New Transformer.T2000402A         XfmrCode=CT25    buses=[M2000402.1 X2000402A.1.0 X2000402A.0.2]
New Transformer.T2000403A         XfmrCode=CT25    buses=[M2000403.1 X2000403A.1.0 X2000403A.0.2]
New Transformer.T2000404A         XfmrCode=CT25    buses=[M2000404.1 X2000404A.1.0 X2000404A.0.2]
New Transformer.T2000405A         XfmrCode=CT25    buses=[M2000405.1 X2000405A.1.0 X2000405A.0.2]
New Transformer.T2000406A         XfmrCode=CT25    buses=[M2000406.1 X2000406A.1.0 X2000406A.0.2]
New Transformer.T2000407A         XfmrCode=CT25    buses=[M2000407.1 X2000407A.1.0 X2000407A.0.2]
New Transformer.T2000408A         XfmrCode=CT25    buses=[M2000408.1 X2000408A.1.0 X2000408A.0.2]
New Transformer.T2000409A         XfmrCode=CT25    buses=[M2000409.1 X2000409A.1.0 X2000409A.0.2]
New Transformer.T2000410A         XfmrCode=CT25    buses=[M2000410.1 X2000410A.1.0 X2000410A.0.2]
New Transformer.T2000411A         XfmrCode=CT25    buses=[M2000411.1 X2000411A.1.0 X2000411A.0.2]
New Transformer.T2000412A         XfmrCode=CT25    buses=[M2000412.1 X2000412A.1.0 X2000412A.0.2]
New Transformer.T2000413A         XfmrCode=CT25    buses=[M2000413.1 X2000413A.1.0 X2000413A.0.2]
New Transformer.T2000414A         XfmrCode=CT25    buses=[M2000414.1 X2000414A.1.0 X2000414A.0.2]
New Transformer.T2000415A         XfmrCode=CT25    buses=[M2000415.1 X2000415A.1.0 X2000415A.0.2]

New Transformer.T2000702B         XfmrCode=CT25    buses=[M2000702.2 X2000702B.1.0 X2000702B.0.2]
New Transformer.T2000703B         XfmrCode=CT25    buses=[M2000703.2 X2000703B.1.0 X2000703B.0.2]
New Transformer.T2000704B         XfmrCode=CT25    buses=[M2000704.2 X2000704B.1.0 X2000704B.0.2]
New Transformer.T2000705B         XfmrCode=CT25    buses=[M2000705.2 X2000705B.1.0 X2000705B.0.2]
New Transformer.T2000706B         XfmrCode=CT25    buses=[M2000706.2 X2000706B.1.0 X2000706B.0.2]
New Transformer.T2000707B         XfmrCode=CT25    buses=[M2000707.2 X2000707B.1.0 X2000707B.0.2]
New Transformer.T2000708B         XfmrCode=CT25    buses=[M2000708.2 X2000708B.1.0 X2000708B.0.2]
New Transformer.T2000709B         XfmrCode=CT25    buses=[M2000709.2 X2000709B.1.0 X2000709B.0.2]
New Transformer.T2000710B         XfmrCode=CT25    buses=[M2000710.2 X2000710B.1.0 X2000710B.0.2]
New Transformer.T2000711B         XfmrCode=CT25    buses=[M2000711.2 X2000711B.1.0 X2000711B.0.2]
New Transformer.T2000712B         XfmrCode=CT25    buses=[M2000712.2 X2000712B.1.0 X2000712B.0.2]
New Transformer.T2000713B         XfmrCode=CT25    buses=[M2000713.2 X2000713B.1.0 X2000713B.0.2]
New Transformer.T2000714B         XfmrCode=CT25    buses=[M2000714.2 X2000714B.1.0 X2000714B.0.2]
New Transformer.T2000715B         XfmrCode=CT25    buses=[M2000715.2 X2000715B.1.0 X2000715B.0.2]

New Transformer.T2000902C         XfmrCode=CT25    buses=[M2000902.3 X2000902C.1.0 X2000902C.0.2]
New Transformer.T2000903C         XfmrCode=CT25    buses=[M2000903.3 X2000903C.1.0 X2000903C.0.2]
New Transformer.T2000904C         XfmrCode=CT25    buses=[M2000904.3 X2000904C.1.0 X2000904C.0.2]
New Transformer.T2000905C         XfmrCode=CT25    buses=[M2000905.3 X2000905C.1.0 X2000905C.0.2]
New Transformer.T2000906C         XfmrCode=CT25    buses=[M2000906.3 X2000906C.1.0 X2000906C.0.2]
New Transformer.T2000907C         XfmrCode=CT25    buses=[M2000907.3 X2000907C.1.0 X2000907C.0.2]
New Transformer.T2000908C         XfmrCode=CT25    buses=[M2000908.3 X2000908C.1.0 X2000908C.0.2]
New Transformer.T2000909C         XfmrCode=CT25    buses=[M2000909.3 X2000909C.1.0 X2000909C.0.2]
New Transformer.T2000910C         XfmrCode=CT25    buses=[M2000910.3 X2000910C.1.0 X2000910C.0.2]
New Transformer.T2000911C         XfmrCode=CT25    buses=[M2000911.3 X2000911C.1.0 X2000911C.0.2]
New Transformer.T2000912C         XfmrCode=CT25    buses=[M2000912.3 X2000912C.1.0 X2000912C.0.2]
New Transformer.T2000913C         XfmrCode=CT25    buses=[M2000913.3 X2000913C.1.0 X2000913C.0.2]
New Transformer.T2000914C         XfmrCode=CT25    buses=[M2000914.3 X2000914C.1.0 X2000914C.0.2]
New Transformer.T2000915C         XfmrCode=CT25    buses=[M2000915.3 X2000915C.1.0 X2000915C.0.2]

New Transformer.T2001002B         XfmrCode=CT25    buses=[M2001002.2 X2001002B.1.0 X2001002B.0.2]
New Transformer.T2001003B         XfmrCode=CT25    buses=[M2001003.2 X2001003B.1.0 X2001003B.0.2]
New Transformer.T2001004B         XfmrCode=CT25    buses=[M2001004.2 X2001004B.1.0 X2001004B.0.2]
New Transformer.T2001005B         XfmrCode=CT25    buses=[M2001005.2 X2001005B.1.0 X2001005B.0.2]
New Transformer.T2001006B         XfmrCode=CT25    buses=[M2001006.2 X2001006B.1.0 X2001006B.0.2]
New Transformer.T2001007B         XfmrCode=CT25    buses=[M2001007.2 X2001007B.1.0 X2001007B.0.2]
New Transformer.T2001008B         XfmrCode=CT25    buses=[M2001008.2 X2001008B.1.0 X2001008B.0.2]
New Transformer.T2001009B         XfmrCode=CT25    buses=[M2001009.2 X2001009B.1.0 X2001009B.0.2]
New Transformer.T2001010B         XfmrCode=CT25    buses=[M2001010.2 X2001010B.1.0 X2001010B.0.2]
New Transformer.T2001011B         XfmrCode=CT25    buses=[M2001011.2 X2001011B.1.0 X2001011B.0.2]
New Transformer.T2001012B         XfmrCode=CT25    buses=[M2001012.2 X2001012B.1.0 X2001012B.0.2]
New Transformer.T2001013B         XfmrCode=CT25    buses=[M2001013.2 X2001013B.1.0 X2001013B.0.2]
New Transformer.T2001014B         XfmrCode=CT25    buses=[M2001014.2 X2001014B.1.0 X2001014B.0.2]
New Transformer.T2001015B         XfmrCode=CT25    buses=[M2001015.2 X2001015B.1.0 X2001015B.0.2]

New Transformer.T2001202C         XfmrCode=CT25    buses=[M2001202.3 X2001202C.1.0 X2001202C.0.2]
New Transformer.T2001203C         XfmrCode=CT25    buses=[M2001203.3 X2001203C.1.0 X2001203C.0.2]
New Transformer.T2001204C         XfmrCode=CT25    buses=[M2001204.3 X2001204C.1.0 X2001204C.0.2]
New Transformer.T2001205C         XfmrCode=CT25    buses=[M2001205.3 X2001205C.1.0 X2001205C.0.2]
New Transformer.T2001206C         XfmrCode=CT25    buses=[M2001206.3 X2001206C.1.0 X2001206C.0.2]
New Transformer.T2001207C         XfmrCode=CT25    buses=[M2001207.3 X2001207C.1.0 X2001207C.0.2]
New Transformer.T2001208C         XfmrCode=CT25    buses=[M2001208.3 X2001208C.1.0 X2001208C.0.2]
New Transformer.T2001209C         XfmrCode=CT25    buses=[M2001209.3 X2001209C.1.0 X2001209C.0.2]
New Transformer.T2001210C         XfmrCode=CT25    buses=[M2001210.3 X2001210C.1.0 X2001210C.0.2]
New Transformer.T2001211C         XfmrCode=CT25    buses=[M2001211.3 X2001211C.1.0 X2001211C.0.2]
New Transformer.T2001212C         XfmrCode=CT25    buses=[M2001212.3 X2001212C.1.0 X2001212C.0.2]
New Transformer.T2001213C         XfmrCode=CT25    buses=[M2001213.3 X2001213C.1.0 X2001213C.0.2]
New Transformer.T2001214C         XfmrCode=CT25    buses=[M2001214.3 X2001214C.1.0 X2001214C.0.2]
New Transformer.T2001215C         XfmrCode=CT25    buses=[M2001215.3 X2001215C.1.0 X2001215C.0.2]

New Transformer.T2001302A         XfmrCode=CT25    buses=[M2001302.1 X2001302A.1.0 X2001302A.0.2]
New Transformer.T2001303A         XfmrCode=CT25    buses=[M2001303.1 X2001303A.1.0 X2001303A.0.2]
New Transformer.T2001304A         XfmrCode=CT25    buses=[M2001304.1 X2001304A.1.0 X2001304A.0.2]
New Transformer.T2001305A         XfmrCode=CT25    buses=[M2001305.1 X2001305A.1.0 X2001305A.0.2]
New Transformer.T2001306A         XfmrCode=CT25    buses=[M2001306.1 X2001306A.1.0 X2001306A.0.2]
New Transformer.T2001307A         XfmrCode=CT25    buses=[M2001307.1 X2001307A.1.0 X2001307A.0.2]
New Transformer.T2001308A         XfmrCode=CT25    buses=[M2001308.1 X2001308A.1.0 X2001308A.0.2]
New Transformer.T2001309A         XfmrCode=CT25    buses=[M2001309.1 X2001309A.1.0 X2001309A.0.2]
New Transformer.T2001310A         XfmrCode=CT25    buses=[M2001310.1 X2001310A.1.0 X2001310A.0.2]
New Transformer.T2001311A         XfmrCode=CT25    buses=[M2001311.1 X2001311A.1.0 X2001311A.0.2]
New Transformer.T2001312A         XfmrCode=CT25    buses=[M2001312.1 X2001312A.1.0 X2001312A.0.2]
New Transformer.T2001313A         XfmrCode=CT25    buses=[M2001313.1 X2001313A.1.0 X2001313A.0.2]
New Transformer.T2001314A         XfmrCode=CT25    buses=[M2001314.1 X2001314A.1.0 X2001314A.0.2]
New Transformer.T2001315A         XfmrCode=CT25    buses=[M2001315.1 X2001315A.1.0 X2001315A.0.2]

New Transformer.T2001400C         XfmrCode=CT75    buses=[M2001400.3 X2001400C.1.0 X2001400C.0.2]