ieee9500/original_dss/BalancedLoads.dss
! ----------------------------------------------------------------
! Balanced Load Case
!-----------------------------------------------------------------

!  Loads are defined as two 120V loads connected line to neutral
!  For phases>1, OpenDSS Load model assumes that a 2-phase load is 2 phases of a 3-phase system 
!  and requires the voltage base to be specified same as 3-phase (Line-Line kV = Line-Neutral * sqrt(3))
!  Thus, the base voltage is 208V to get 120V line-to-neutral.
!  Alternatively, we could have defined two separate 1-phase loads rated at 120V.
!  The service transformer connection enforces the voltage polarities and phase angles.
!  The kW load is divided equally between the two "phases"

New Load.138236B0     phases=2 Bus1=SX2673305B.1.2  kv=0.208  status=variable Model=5 conn=wye kW=3.89   pf=0.97  Vminpu=.88
New Load.138237B0     phases=2 Bus1=SX3048196B.1.2  kv=0.208  status=variable Model=5 conn=wye kW=5.84   pf=0.97  Vminpu=.88
New Load.138258C0     phases=2 Bus1=SX2991911C.1.2  kv=0.208  status=variable Model=5 conn=wye kW=6.10   pf=0.97  Vminpu=.88
New Load.138259C0     phases=2 Bus1=SX2973158C.1.2  kv=0.208  status=variable Model=5 conn=wye kW=6.10   pf=0.97  Vminpu=.88
New Load.138260A0     phases=2 Bus1=SX3048208A.1.2  kv=0.208  status=variable Model=5 conn=wye kW=5.32   pf=0.97  Vminpu=.88
New Load.138262A0     phases=2 Bus1=SX3029502A.1.2  kv=0.208  status=variable Model=5 conn=wye kW=17.74  pf=0.97  Vminpu=.88
New Load.138264B0     phases=2 Bus1=SX3104125B.1.2  kv=0.208  status=variable Model=5 conn=wye kW=9.73   pf=0.97  Vminpu=.88
New Load.138265A0     phases=2 Bus1=SX3160107A.1.2  kv=0.208  status=variable Model=5 conn=wye kW=8.87   pf=0.97  Vminpu=.88
New Load.138294B0     phases=2 Bus1=SX2785516B.1.2  kv=0.208  status=variable Model=5 conn=wye kW=5.84   pf=0.97  Vminpu=.88
New Load.138313A0     phases=2 Bus1=SX3141400A.1.2  kv=0.208  status=variable Model=5 conn=wye kW=3.55   pf=0.97  Vminpu=.88
New Load.138342C0     phases=2 Bus1=SX2897775C.1.2  kv=0.208  status=variable Model=5 conn=wye kW=10.17  pf=0.97  Vminpu=.88
New Load.138343C0     phases=2 Bus1=SX3010565C.1.2  kv=0.208  status=variable Model=5 conn=wye kW=4.07   pf=0.97  Vminpu=.88
New Load.138346C0     phases=2 Bus1=SX2916609C.1.2  kv=0.208  status=variable Model=5 conn=wye kW=6.10   pf=0.97  Vminpu=.88
New Load.138371C0     phases=2 Bus1=SX2879073C.1.2  kv=0.208  status=variable Model=5 conn=wye kW=6.10   pf=0.97  Vminpu=.88
New Load.138372C0     phases=2 Bus1=SX3104126C.1.2  kv=0.208  status=variable Model=5 conn=wye kW=4.07   pf=0.97  Vminpu=.88
New Load.138373C0     phases=2 Bus1=SX3029503C.1.2  kv=0.208  status=variable Model=5 conn=wye kW=6.10   pf=0.97  Vminpu=.88
New Load.138374C0     phases=2 Bus1=SX2691950C.1.2  kv=0.208  status=variable Model=5 conn=wye kW=10.17  pf=0.97  Vminpu=.88
New Load.138379C0     phases=2 Bus1=SX2691951C.1.2  kv=0.208  status=variable Model=5 conn=wye kW=10.17  pf=0.97  Vminpu=.88
New Load.138380C0     phases=2 Bus1=SX2879076C.1.2  kv=0.208  status=variable Model=5 conn=wye kW=4.07   pf=0.97  Vminpu=.88
New Load.138404C0     phases=2 Bus1=SX2841630C.1.2  kv=0.208  status=variable Model=5 conn=wye kW=10.17  pf=0.97  Vminpu=.88
New Load.138405C0     phases=2 Bus1=SX2841629C.1.2  kv=0.208  status=variable Model=5 conn=wye kW=15.26  pf=0.97  Vminpu=.88
New Load.138412C0     phases=2 Bus1=SX2785523C.1.2  kv=0.208  status=variable Model=5 conn=wye kW=6.10   pf=0.97  Vminpu=.88
New Load.138413C0     phases=2 Bus1=SX3216347C.1.2  kv=0.208  status=variable Model=5 conn=wye kW=6.10   pf=0.97  Vminpu=.88
New Load.138416C0     phases=2 Bus1=SX3141388C.1.2  kv=0.208  status=variable Model=5 conn=wye kW=4.07   pf=0.97  Vminpu=.88
New Load.138464C0     phases=2 Bus1=SX3066801C.1.2  kv=0.208  status=variable Model=5 conn=wye kW=4.07   pf=0.97  Vminpu=.88
New Load.138465C0     phases=2 Bus1=SX2879055C.1.2  kv=0.208  status=variable Model=5 conn=wye kW=4.07   pf=0.97  Vminpu=.88
New Load.138466C0     phases=2 Bus1=SX2973144C.1.2  kv=0.208  status=variable Model=5 conn=wye kW=10.17  pf=0.97  Vminpu=.88
New Load.138469C0     phases=2 Bus1=SX2785518C.1.2  kv=0.208  status=variable Model=5 conn=wye kW=6.10   pf=0.97  Vminpu=.88
New Load.138470C0     phases=2 Bus1=SX2766717C.1.2  kv=0.208  status=variable Model=5 conn=wye kW=4.07   pf=0.97  Vminpu=.88
New Load.138472C0     phases=2 Bus1=SX2673309C.1.2  kv=0.208  status=variable Model=5 conn=wye kW=10.17  pf=0.97  Vminpu=.88
New Load.138560A0     phases=2 Bus1=SX3104113A.1.2  kv=0.208  status=variable Model=5 conn=wye kW=8.87   pf=0.97  Vminpu=.88
New Load.138561A0     phases=2 Bus1=SX3104121A.1.2  kv=0.208  status=variable Model=5 conn=wye kW=8.87   pf=0.97  Vminpu=.88
New Load.138562A0     phases=2 Bus1=SX2673310A.1.2  kv=0.208  status=variable Model=5 conn=wye kW=8.87   pf=0.97  Vminpu=.88
New Load.138563A0     phases=2 Bus1=SX2916627A.1.2  kv=0.208  status=variable Model=5 conn=wye kW=8.87   pf=0.97  Vminpu=.88
New Load.138564A0     phases=2 Bus1=SX2804283A.1.2  kv=0.208  status=variable Model=5 conn=wye kW=8.87   pf=0.97  Vminpu=.88
New Load.138565A0     phases=2 Bus1=SX3104122A.1.2  kv=0.208  status=variable Model=5 conn=wye kW=8.87   pf=0.97  Vminpu=.88
New Load.138566A0     phases=2 Bus1=SX2785519A.1.2  kv=0.208  status=variable Model=5 conn=wye kW=8.87   pf=0.97  Vminpu=.88
New Load.138567A0     phases=2 Bus1=SX2748129A.1.2  kv=0.208  status=variable Model=5 conn=wye kW=13.30  pf=0.97  Vminpu=.88
New Load.138569A0     phases=2 Bus1=SX2973151A.1.2  kv=0.208  status=variable Model=5 conn=wye kW=5.32   pf=0.97  Vminpu=.88
New Load.138570A0     phases=2 Bus1=SX2748146A.1.2  kv=0.208  status=variable Model=5 conn=wye kW=5.32   pf=0.97  Vminpu=.88
New Load.138571A0     phases=2 Bus1=SX2991913A.1.2  kv=0.208  status=variable Model=5 conn=wye kW=5.32   pf=0.97  Vminpu=.88
New Load.138573A0     phases=2 Bus1=SX3235253A.1.2  kv=0.208  status=variable Model=5 conn=wye kW=8.87   pf=0.97  Vminpu=.88
New Load.138574A0     phases=2 Bus1=SX2991907A.1.2  kv=0.208  status=variable Model=5 conn=wye kW=8.87   pf=0.97  Vminpu=.88
New Load.138581A0     phases=2 Bus1=SX2879064A.1.2  kv=0.208  status=variable Model=5 conn=wye kW=8.87   pf=0.97  Vminpu=.88
New Load.138585C0     phases=2 Bus1=SX3197637C.1.2  kv=0.208  status=variable Model=5 conn=wye kW=4.07   pf=0.97  Vminpu=.88
New Load.138586C0     phases=2 Bus1=SX2860487C.1.2  kv=0.208  status=variable Model=5 conn=wye kW=6.10   pf=0.97  Vminpu=.88
New Load.138641C0     phases=2 Bus1=SX2841638C.1.2  kv=0.208  status=variable Model=5 conn=wye kW=6.10   pf=0.97  Vminpu=.88
New Load.138642A0     phases=2 Bus1=SX3235256A.1.2  kv=0.208  status=variable Model=5 conn=wye kW=5.32   pf=0.97  Vminpu=.88
New Load.138644A0     phases=2 Bus1=SX3197630A.1.2  kv=0.208  status=variable Model=5 conn=wye kW=8.87   pf=0.97  Vminpu=.88
New Load.138645B0     phases=2 Bus1=SX3104120B.1.2  kv=0.208  status=variable Model=5 conn=wye kW=5.84   pf=0.97  Vminpu=.88
New Load.138646A0     phases=2 Bus1=SX2804251A.1.2  kv=0.208  status=variable Model=5 conn=wye kW=3.55   pf=0.97  Vminpu=.88
New Load.138647C0     phases=2 Bus1=SX3254210C.1.2  kv=0.208  status=variable Model=5 conn=wye kW=6.10   pf=0.97  Vminpu=.88
New Load.138649A0     phases=2 Bus1=SX3048206A.1.2  kv=0.208  status=variable Model=5 conn=wye kW=8.87   pf=0.97  Vminpu=.88
New Load.138650C0     phases=2 Bus1=SX2710510C.1.2  kv=0.208  status=variable Model=5 conn=wye kW=4.07   pf=0.97  Vminpu=.88
New Load.138651C0     phases=2 Bus1=SX3197628C.1.2  kv=0.208  status=variable Model=5 conn=wye kW=10.17  pf=0.97  Vminpu=.88
New Load.138652C0     phases=2 Bus1=SX2766718C.1.2  kv=0.208  status=variable Model=5 conn=wye kW=15.26  pf=0.97  Vminpu=.88
New Load.138655A0     phases=2 Bus1=SX3010556A.1.2  kv=0.208  status=variable Model=5 conn=wye kW=5.32   pf=0.97  Vminpu=.88
New Load.138679A0     phases=2 Bus1=SX2710520A.1.2  kv=0.208  status=variable Model=5 conn=wye kW=5.32   pf=0.97  Vminpu=.88
New Load.138680A0     phases=2 Bus1=SX2710521A.1.2  kv=0.208  status=variable Model=5 conn=wye kW=8.87   pf=0.97  Vminpu=.88
New Load.138684A0     phases=2 Bus1=SX3085396A.1.2  kv=0.208  status=variable Model=5 conn=wye kW=8.87   pf=0.97  Vminpu=.88
New Load.138685A0     phases=2 Bus1=SX3122813A.1.2  kv=0.208  status=variable Model=5 conn=wye kW=5.32   pf=0.97  Vminpu=.88
New Load.138716C0     phases=2 Bus1=SX3254219C.1.2  kv=0.208  status=variable Model=5 conn=wye kW=10.17  pf=0.97  Vminpu=.88
New Load.138717C0     phases=2 Bus1=SX3254220C.1.2  kv=0.208  status=variable Model=5 conn=wye kW=10.17  pf=0.97  Vminpu=.88
New Load.138718C0     phases=2 Bus1=SX3104134C.1.2  kv=0.208  status=variable Model=5 conn=wye kW=10.17  pf=0.97  Vminpu=.88
New Load.138719A0     phases=2 Bus1=SX2860490A.1.2  kv=0.208  status=variable Model=5 conn=wye kW=8.87   pf=0.97  Vminpu=.88
New Load.138720A0     phases=2 Bus1=SX3254218A.1.2  kv=0.208  status=variable Model=5 conn=wye kW=8.87   pf=0.97  Vminpu=.88
New Load.138751B0     phases=2 Bus1=SX3066818B.1.2  kv=0.208  status=variable Model=5 conn=wye kW=9.73   pf=0.97  Vminpu=.88
New Load.138752B0     phases=2 Bus1=SX2785528B.1.2  kv=0.208  status=variable Model=5 conn=wye kW=5.84   pf=0.97  Vminpu=.88
New Load.138753B0     phases=2 Bus1=SX2748130B.1.2  kv=0.208  status=variable Model=5 conn=wye kW=9.73   pf=0.97  Vminpu=.88
New Load.138754B0     phases=2 Bus1=SX3254212B.1.2  kv=0.208  status=variable Model=5 conn=wye kW=14.59  pf=0.97  Vminpu=.88
New Load.138755B0     phases=2 Bus1=SX2785520B.1.2  kv=0.208  status=variable Model=5 conn=wye kW=3.89   pf=0.97  Vminpu=.88
New Load.138769A0     phases=2 Bus1=SX2729411A.1.2  kv=0.208  status=variable Model=5 conn=wye kW=3.55   pf=0.97  Vminpu=.88
New Load.138770A0     phases=2 Bus1=SX2897781A.1.2  kv=0.208  status=variable Model=5 conn=wye kW=3.55   pf=0.97  Vminpu=.88
New Load.138771A0     phases=2 Bus1=SX3197644A.1.2  kv=0.208  status=variable Model=5 conn=wye kW=5.32   pf=0.97  Vminpu=.88
New Load.138776C0     phases=2 Bus1=SX3010566C.1.2  kv=0.208  status=variable Model=5 conn=wye kW=6.10   pf=0.97  Vminpu=.88
New Load.138796B0     phases=2 Bus1=SX3236011B.1.2  kv=0.208  status=variable Model=5 conn=wye kW=5.84   pf=0.97  Vminpu=.88
New Load.138797B0     phases=2 Bus1=SX3198358B.1.2  kv=0.208  status=variable Model=5 conn=wye kW=14.59  pf=0.97  Vminpu=.88
New Load.138798B0     phases=2 Bus1=SX3104859B.1.2  kv=0.208  status=variable Model=5 conn=wye kW=5.84   pf=0.97  Vminpu=.88
New Load.157715B0     phases=2 Bus1=SX2936275B.1.2  kv=0.208  status=variable Model=5 conn=wye kW=3.89   pf=0.97  Vminpu=.88
New Load.157716B0     phases=2 Bus1=SX3179674B.1.2  kv=0.208  status=variable Model=5 conn=wye kW=9.73   pf=0.97  Vminpu=.88
New Load.157717B0     phases=2 Bus1=SX2748840B.1.2  kv=0.208  status=variable Model=5 conn=wye kW=5.84   pf=0.97  Vminpu=.88
New Load.157718B0     phases=2 Bus1=SX3142099B.1.2  kv=0.208  status=variable Model=5 conn=wye kW=9.73   pf=0.97  Vminpu=.88
New Load.207286C0     phases=2 Bus1=SX3011298C.1.2  kv=0.208  status=variable Model=5 conn=wye kW=4.07   pf=0.97  Vminpu=.88
New Load.207287B0     phases=2 Bus1=SX2711234B.1.2  kv=0.208  status=variable Model=5 conn=wye kW=9.73   pf=0.97  Vminpu=.88
New Load.207288B0     phases=2 Bus1=SX3198355B.1.2  kv=0.208  status=variable Model=5 conn=wye kW=3.89   pf=0.97  Vminpu=.88
New Load.207290A0     phases=2 Bus1=SX2879773A.1.2  kv=0.208  status=variable Model=5 conn=wye kW=8.87   pf=0.97  Vminpu=.88
New Load.207291C0     phases=2 Bus1=SX2786274C.1.2  kv=0.208  status=variable Model=5 conn=wye kW=10.17  pf=0.97  Vminpu=.88
New Load.207292C0     phases=2 Bus1=SX3179682C.1.2  kv=0.208  status=variable Model=5 conn=wye kW=6.10   pf=0.97  Vminpu=.88
New Load.218472A0     phases=2 Bus1=SX2936270A.1.2  kv=0.208  status=variable Model=5 conn=wye kW=8.87   pf=0.97  Vminpu=.88
New Load.218473A0     phases=2 Bus1=SX3086078A.1.2  kv=0.208  status=variable Model=5 conn=wye kW=8.87   pf=0.97  Vminpu=.88
New Load.218474A0     phases=2 Bus1=SX3217056A.1.2  kv=0.208  status=variable Model=5 conn=wye kW=17.74  pf=0.97  Vminpu=.88
New Load.218475A0     phases=2 Bus1=SX3217057A.1.2  kv=0.208  status=variable Model=5 conn=wye kW=3.55   pf=0.97  Vminpu=.88
New Load.223655C0     phases=2 Bus1=SX2936268C.1.2  kv=0.208  status=variable Model=5 conn=wye kW=6.10   pf=0.97  Vminpu=.88
New Load.223658A0     phases=2 Bus1=SX2823592A.1.2  kv=0.208  status=variable Model=5 conn=wye kW=1.77   pf=0.97  Vminpu=.88
New Load.223660C0     phases=2 Bus1=SX3160863C.1.2  kv=0.208  status=variable Model=5 conn=wye kW=6.10   pf=0.97  Vminpu=.88
New Load.223661C0     phases=2 Bus1=SX2730108C.1.2  kv=0.208  status=variable Model=5 conn=wye kW=6.10   pf=0.97  Vminpu=.88
New Load.223662C0     phases=2 Bus1=SX2786204C.1.2  kv=0.208  status=variable Model=5 conn=wye kW=15.26  pf=0.97  Vminpu=.88
New Load.223663C0     phases=2 Bus1=SX2936216C.1.2  kv=0.208  status=variable Model=5 conn=wye kW=4.07   pf=0.97  Vminpu=.88
New Load.247036C0     phases=2 Bus1=SX3029498C.1.2  kv=0.208  status=variable Model=5 conn=wye kW=4.07   pf=0.97  Vminpu=.88
New Load.247056A0     phases=2 Bus1=SX2991912A.1.2  kv=0.208  status=variable Model=5 conn=wye kW=5.32   pf=0.97  Vminpu=.88
New Load.247057A0     phases=2 Bus1=SX3104128A.1.2  kv=0.208  status=variable Model=5 conn=wye kW=5.32   pf=0.97  Vminpu=.88
New Load.247058A0     phases=2 Bus1=SX2673315A.1.2  kv=0.208  status=variable Model=5 conn=wye kW=3.55   pf=0.97  Vminpu=.88
New Load.247059A0     phases=2 Bus1=SX2766721A.1.2  kv=0.208  status=variable Model=5 conn=wye kW=8.87   pf=0.97  Vminpu=.88
New Load.247060A0     phases=2 Bus1=SX2991906A.1.2  kv=0.208  status=variable Model=5 conn=wye kW=3.55   pf=0.97  Vminpu=.88
New Load.247061A0     phases=2 Bus1=SX2879054A.1.2  kv=0.208  status=variable Model=5 conn=wye kW=8.87   pf=0.97  Vminpu=.88
New Load.247084B0     phases=2 Bus1=SX3254211B.1.2  kv=0.208  status=variable Model=5 conn=wye kW=9.73   pf=0.97  Vminpu=.88
New Load.247100B0     phases=2 Bus1=SX2729407B.1.2  kv=0.208  status=variable Model=5 conn=wye kW=5.84   pf=0.97  Vminpu=.88
New Load.247105B0     phases=2 Bus1=SX2691942B.1.2  kv=0.208  status=variable Model=5 conn=wye kW=5.84   pf=0.97  Vminpu=.88
New Load.247122B0     phases=2 Bus1=SX3197629B.1.2  kv=0.208  status=variable Model=5 conn=wye kW=5.84   pf=0.97  Vminpu=.88
New Load.247126B0     phases=2 Bus1=SX2879065B.1.2  kv=0.208  status=variable Model=5 conn=wye kW=3.89   pf=0.97  Vminpu=.88
New Load.247160B0     phases=2 bus1=SX0247160B.1.2  kv=0.208  status=variable Model=5 conn=wye kW=5.84   pf=0.97  Vminpu=.88
New Load.247162B0     phases=2 bus1=SX0247162B.1.2  kv=0.208  status=variable Model=5 conn=wye kW=5.84   pf=0.97  Vminpu=.88
New Load.247164B0     phases=2 Bus1=SX2766732B.1.2  kv=0.208  status=variable Model=5 conn=wye kW=3.89   pf=0.97  Vminpu=.88
New Load.247170B0     phases=2 Bus1=SX2897784B.1.2  kv=0.208  status=variable Model=5 conn=wye kW=14.59  pf=0.97  Vminpu=.88
New Load.247171B0     phases=2 bus1=SX0247171B.1.2  kv=0.208  status=variable Model=5 conn=wye kW=5.84   pf=0.97  Vminpu=.88
New Load.247184C0     phases=2 Bus1=SX2936279C.1.2  kv=0.208  status=variable Model=5 conn=wye kW=10.17  pf=0.97  Vminpu=.88
New Load.247185B0     phases=2 Bus1=SX3179678B.1.2  kv=0.208  status=variable Model=5 conn=wye kW=5.84   pf=0.97  Vminpu=.88
New Load.251828B0     phases=2 Bus1=SX3179650B.1.2  kv=0.208  status=variable Model=5 conn=wye kW=5.84   pf=0.97  Vminpu=.88
New Load.251855C0     phases=2 Bus1=SX2730107C.1.2  kv=0.208  status=variable Model=5 conn=wye kW=10.17  pf=0.97  Vminpu=.88
New Load.251856C0     phases=2 Bus1=SX3048888C.1.2  kv=0.208  status=variable Model=5 conn=wye kW=6.10   pf=0.97  Vminpu=.88
New Load.251857C0     phases=2 Bus1=SX3064514C.1.2  kv=0.208  status=variable Model=5 conn=wye kW=6.10   pf=0.97  Vminpu=.88
New Load.251858C0     phases=2 Bus1=SX2861158C.1.2  kv=0.208  status=variable Model=5 conn=wye kW=10.17  pf=0.97  Vminpu=.88
New Load.251859C0     phases=2 Bus1=SX2952007C.1.2  kv=0.208  status=variable Model=5 conn=wye kW=10.17  pf=0.97  Vminpu=.88
New Load.251862C0     phases=2 Bus1=SX3254873C.1.2  kv=0.208  status=variable Model=5 conn=wye kW=6.10   pf=0.97  Vminpu=.88
New Load.251863C0     phases=2 Bus1=SX2745811C.1.2  kv=0.208  status=variable Model=5 conn=wye kW=10.17  pf=0.97  Vminpu=.88
New Load.251865C0     phases=2 Bus1=SX3142050C.1.2  kv=0.208  status=variable Model=5 conn=wye kW=6.10   pf=0.97  Vminpu=.88
New Load.251867C0     phases=2 Bus1=SX2861157C.1.2  kv=0.208  status=variable Model=5 conn=wye kW=10.17  pf=0.97  Vminpu=.88
New Load.260457B0     phases=2 Bus1=SX3086079B.1.2  kv=0.208  status=variable Model=5 conn=wye kW=3.89   pf=0.97  Vminpu=.88
New Load.260458B0     phases=2 Bus1=SX2936276B.1.2  kv=0.208  status=variable Model=5 conn=wye kW=3.89   pf=0.97  Vminpu=.88
New Load.260461B0     phases=2 Bus1=SX2861223B.1.2  kv=0.208  status=variable Model=5 conn=wye kW=9.73   pf=0.97  Vminpu=.88
New Load.260463B0     phases=2 Bus1=SX3086075B.1.2  kv=0.208  status=variable Model=5 conn=wye kW=5.84   pf=0.97  Vminpu=.88
New Load.260464A0     phases=2 Bus1=SX2730187A.1.2  kv=0.208  status=variable Model=5 conn=wye kW=13.30  pf=0.97  Vminpu=.88
New Load.260467A0     phases=2 Bus1=SX3104856A.1.2  kv=0.208  status=variable Model=5 conn=wye kW=5.32   pf=0.97  Vminpu=.88
New Load.260473A0     phases=2 Bus1=SX2861222A.1.2  kv=0.208  status=variable Model=5 conn=wye kW=13.30  pf=0.97  Vminpu=.88
New Load.260474A0     phases=2 Bus1=SX2917330A.1.2  kv=0.208  status=variable Model=5 conn=wye kW=8.87   pf=0.97  Vminpu=.88
New Load.260475A0     phases=2 Bus1=SX2879794A.1.2  kv=0.208  status=variable Model=5 conn=wye kW=13.30  pf=0.97  Vminpu=.88
New Load.260476A0     phases=2 Bus1=SX2936271A.1.2  kv=0.208  status=variable Model=5 conn=wye kW=5.32   pf=0.97  Vminpu=.88
New Load.260479A0     phases=2 Bus1=SX2955074A.1.2  kv=0.208  status=variable Model=5 conn=wye kW=13.30  pf=0.97  Vminpu=.88
New Load.260480C0     phases=2 Bus1=SX3030199C.1.2  kv=0.208  status=variable Model=5 conn=wye kW=10.17  pf=0.97  Vminpu=.88
New Load.260481C0     phases=2 Bus1=SX2730163C.1.2  kv=0.208  status=variable Model=5 conn=wye kW=10.17  pf=0.97  Vminpu=.88
New Load.260484A0     phases=2 Bus1=SX2992624A.1.2  kv=0.208  status=variable Model=5 conn=wye kW=5.32   pf=0.97  Vminpu=.88
New Load.260487A0     phases=2 Bus1=SX2692654A.1.2  kv=0.208  status=variable Model=5 conn=wye kW=5.32   pf=0.97  Vminpu=.88
New Load.260488A0     phases=2 Bus1=SX2842379A.1.2  kv=0.208  status=variable Model=5 conn=wye kW=13.30  pf=0.97  Vminpu=.88
New Load.260491C0     phases=2 Bus1=SX2805031C.1.2  kv=0.208  status=variable Model=5 conn=wye kW=15.26  pf=0.97  Vminpu=.88
New Load.260494B0     phases=2 Bus1=SX3068944B.1.2  kv=0.208  status=variable Model=5 conn=wye kW=14.59  pf=0.97  Vminpu=.88
New Load.260495B0     phases=2 Bus1=SX2767407B.1.2  kv=0.208  status=variable Model=5 conn=wye kW=3.89   pf=0.97  Vminpu=.88
New Load.260496B0     phases=2 Bus1=SX2879767B.1.2  kv=0.208  status=variable Model=5 conn=wye kW=3.89   pf=0.97  Vminpu=.88
New Load.260500B0     phases=2 Bus1=SX2711224B.1.2  kv=0.208  status=variable Model=5 conn=wye kW=3.89   pf=0.97  Vminpu=.88
New Load.260501B0     phases=2 Bus1=SX3142098B.1.2  kv=0.208  status=variable Model=5 conn=wye kW=9.73   pf=0.97  Vminpu=.88
New Load.260502B0     phases=2 Bus1=SX2748839B.1.2  kv=0.208  status=variable Model=5 conn=wye kW=3.89   pf=0.97  Vminpu=.88
New Load.260503B0     phases=2 Bus1=SX2917310B.1.2  kv=0.208  status=variable Model=5 conn=wye kW=5.84   pf=0.97  Vminpu=.88
New Load.260505C0     phases=2 Bus1=SX2861218C.1.2  kv=0.208  status=variable Model=5 conn=wye kW=10.17  pf=0.97  Vminpu=.88
New Load.260508A0     phases=2 Bus1=SX2955081A.1.2  kv=0.208  status=variable Model=5 conn=wye kW=5.32   pf=0.97  Vminpu=.88
New Load.260511C0     phases=2 Bus1=SX3160878C.1.2  kv=0.208  status=variable Model=5 conn=wye kW=6.10   pf=0.97  Vminpu=.88
New Load.260513C0     phases=2 Bus1=SX2917336C.1.2  kv=0.208  status=variable Model=5 conn=wye kW=6.10   pf=0.97  Vminpu=.88
New Load.260514C0     phases=2 Bus1=SX2674047C.1.2  kv=0.208  status=variable Model=5 conn=wye kW=6.10   pf=0.97  Vminpu=.88
New Load.260515A0     phases=2 Bus1=SX3160865A.1.2  kv=0.208  status=variable Model=5 conn=wye kW=8.87   pf=0.97  Vminpu=.88
New Load.260517C0     phases=2 Bus1=SX2767408C.1.2  kv=0.208  status=variable Model=5 conn=wye kW=6.10   pf=0.97  Vminpu=.88
New Load.260518C0     phases=2 Bus1=SX3104853C.1.2  kv=0.208  status=variable Model=5 conn=wye kW=10.17  pf=0.97  Vminpu=.88
New Load.260520B0     phases=2 Bus1=SX3254915B.1.2  kv=0.208  status=variable Model=5 conn=wye kW=1.95   pf=0.97  Vminpu=.88
New Load.260521B0     phases=2 Bus1=SX3048963B.1.2  kv=0.208  status=variable Model=5 conn=wye kW=5.84   pf=0.97  Vminpu=.88
New Load.260527B0     phases=2 Bus1=SX2711226B.1.2  kv=0.208  status=variable Model=5 conn=wye kW=9.73   pf=0.97  Vminpu=.88
New Load.260528C0     phases=2 Bus1=SX3217052C.1.2  kv=0.208  status=variable Model=5 conn=wye kW=10.17  pf=0.97  Vminpu=.88
New Load.260529C0     phases=2 Bus1=SX3217053C.1.2  kv=0.208  status=variable Model=5 conn=wye kW=4.07   pf=0.97  Vminpu=.88
New Load.260532C0     phases=2 Bus1=SX3086074C.1.2  kv=0.208  status=variable Model=5 conn=wye kW=6.10   pf=0.97  Vminpu=.88
New Load.260535C0     phases=2 Bus1=SX3067507C.1.2  kv=0.208  status=variable Model=5 conn=wye kW=15.26  pf=0.97  Vminpu=.88
New Load.260542A0     phases=2 Bus1=SX2955078A.1.2  kv=0.208  status=variable Model=5 conn=wye kW=8.87   pf=0.97  Vminpu=.88
New Load.260543C0     phases=2 Bus1=SX2955077C.1.2  kv=0.208  status=variable Model=5 conn=wye kW=10.17  pf=0.97  Vminpu=.88
New Load.260551C0     phases=2 Bus1=SX3160872C.1.2  kv=0.208  status=variable Model=5 conn=wye kW=15.26  pf=0.97  Vminpu=.88
New Load.260552A0     phases=2 Bus1=SX3198348A.1.2  kv=0.208  status=variable Model=5 conn=wye kW=17.74  pf=0.97  Vminpu=.88
New Load.260553C0     phases=2 Bus1=SX2711225C.1.2  kv=0.208  status=variable Model=5 conn=wye kW=6.10   pf=0.97  Vminpu=.88
New Load.260554C0     phases=2 Bus1=SX3030200C.1.2  kv=0.208  status=variable Model=5 conn=wye kW=6.10   pf=0.97  Vminpu=.88
New Load.260555A0     phases=2 Bus1=SX3048962A.1.2  kv=0.208  status=variable Model=5 conn=wye kW=13.30  pf=0.97  Vminpu=.88
New Load.260558C0     phases=2 Bus1=SX3160861C.1.2  kv=0.208  status=variable Model=5 conn=wye kW=4.07   pf=0.97  Vminpu=.88
New Load.260561C0     phases=2 Bus1=SX3104850C.1.2  kv=0.208  status=variable Model=5 conn=wye kW=10.17  pf=0.97  Vminpu=.88
New Load.260562A0     phases=2 Bus1=SX3251799A.1.2  kv=0.208  status=variable Model=5 conn=wye kW=13.30  pf=0.97  Vminpu=.88
New Load.260567C0     phases=2 Bus1=SX2936211C.1.2  kv=0.208  status=variable Model=5 conn=wye kW=6.10   pf=0.97  Vminpu=.88
New Load.260568C0     phases=2 Bus1=SX2842329C.1.2  kv=0.208  status=variable Model=5 conn=wye kW=6.10   pf=0.97  Vminpu=.88
New Load.260569C0     phases=2 Bus1=SX3104796C.1.2  kv=0.208  status=variable Model=5 conn=wye kW=10.17  pf=0.97  Vminpu=.88
New Load.260572C0     phases=2 Bus1=SX3236004C.1.2  kv=0.208  status=variable Model=5 conn=wye kW=6.10   pf=0.97  Vminpu=.88
New Load.260573C0     phases=2 Bus1=SX3160896C.1.2  kv=0.208  status=variable Model=5 conn=wye kW=6.10   pf=0.97  Vminpu=.88
New Load.260574C0     phases=2 Bus1=SX3123452C.1.2  kv=0.208  status=variable Model=5 conn=wye kW=10.17  pf=0.97  Vminpu=.88
New Load.260575B0     phases=2 Bus1=SX3254869B.1.2  kv=0.208  status=variable Model=5 conn=wye kW=5.84   pf=0.97  Vminpu=.88
New Load.260576C0     phases=2 Bus1=SX3030126C.1.2  kv=0.208  status=variable Model=5 conn=wye kW=10.17  pf=0.97  Vminpu=.88
New Load.260577C0     phases=2 Bus1=SX2767341C.1.2  kv=0.208  status=variable Model=5 conn=wye kW=15.26  pf=0.97  Vminpu=.88
New Load.260581C0     phases=2 Bus1=SX3254870C.1.2  kv=0.208  status=variable Model=5 conn=wye kW=10.17  pf=0.97  Vminpu=.88
New Load.260586B0     phases=2 Bus1=SX3048887B.1.2  kv=0.208  status=variable Model=5 conn=wye kW=14.59  pf=0.97  Vminpu=.88
New Load.260589B0     phases=2 Bus1=SX2955005B.1.2  kv=0.208  status=variable Model=5 conn=wye kW=5.84   pf=0.97  Vminpu=.88
New Load.260590B0     phases=2 Bus1=SX3216988B.1.2  kv=0.208  status=variable Model=5 conn=wye kW=9.73   pf=0.97  Vminpu=.88
New Load.260591B0     phases=2 Bus1=SX3179607B.1.2  kv=0.208  status=variable Model=5 conn=wye kW=9.73   pf=0.97  Vminpu=.88
New Load.260594A0     phases=2 Bus1=SX2898457A.1.2  kv=0.208  status=variable Model=5 conn=wye kW=3.55   pf=0.97  Vminpu=.88
New Load.260595A0     phases=2 Bus1=SX2767340A.1.2  kv=0.208  status=fixed    Model=5 conn=wye kW=26.60  pf=0.97  Vminpu=.88
New Load.260595B0     phases=2 Bus1=SX2767340B.1.2  kv=0.208  status=fixed    Model=5 conn=wye kW=29.18  pf=0.97  Vminpu=.88
New Load.260595C0     phases=2 Bus1=SX2767340C.1.2  kv=0.208  status=fixed    Model=5 conn=wye kW=30.52  pf=0.97  Vminpu=.88
New Load.260598A0     phases=2 Bus1=SX3067478A.1.2  kv=0.208  status=variable Model=5 conn=wye kW=13.30  pf=0.97  Vminpu=.88
New Load.260601C0     phases=2 Bus1=SX2730149C.1.2  kv=0.208  status=variable Model=5 conn=wye kW=6.10   pf=0.97  Vminpu=.88
New Load.260602B0     phases=2 Bus1=SX2989566B.1.2  kv=0.208  status=variable Model=5 conn=wye kW=5.84   pf=0.97  Vminpu=.88
New Load.260605A0     phases=2 Bus1=SX2973791A.1.2  kv=0.208  status=variable Model=5 conn=wye kW=17.74  pf=0.97  Vminpu=.88
New Load.260607B0     phases=2 Bus1=SX3029055B.1.2  kv=0.208  status=variable Model=5 conn=wye kW=14.59  pf=0.97  Vminpu=.88
New Load.260620C0     phases=2 Bus1=SX3067506C.1.2  kv=0.208  status=variable Model=5 conn=wye kW=4.07   pf=0.97  Vminpu=.88
...

////////////////////////////////////////////////////////////////////////////////////
//
// above this point, loads are as defined in the EPRI file distributed with OpenDSS
//
// some additional unbalanced three-phase loads
//
New Load.2221108403A0 phases=2 Bus1=SX1108403A.1.2 kv=0.208 Status=variable Model=5 Conn=wye kW= 28.9838572983329 pf=0.97 Vminpu=0.88
New Load.2221108403B0 phases=2 Bus1=SX1108403B.1.2 kv=0.208 Status=variable Model=5 Conn=wye kW= 23.3278347452893 pf=0.97 Vminpu=0.88
New Load.2221108403C0 phases=2 Bus1=SX1108403C.1.2 kv=0.208 Status=variable Model=5 Conn=wye kW= 21.3497598372442 pf=0.97 Vminpu=0.88
New Load.2221108404A0 phases=2 Bus1=SX1108404A.1.2 kv=0.208 Status=variable Model=5 Conn=wye kW= 35.9748912749128 pf=0.97 Vminpu=0.88
New Load.2221108404B0 phases=2 Bus1=SX1108404B.1.2 kv=0.208 Status=variable Model=5 Conn=wye kW= 39.2746296483264 pf=0.97 Vminpu=0.88
New Load.2221108404C0 phases=2 Bus1=SX1108404C.1.2 kv=0.208 Status=variable Model=5 Conn=wye kW= 31.9375987492748 pf=0.97 Vminpu=0.88
New Load.2221108405A0 phases=2 Bus1=SX1108405A.1.2 kv=0.208 Status=variable Model=5 Conn=wye kW= 24.8329874927289 pf=0.97 Vminpu=0.88
New Load.2221108405B0 phases=2 Bus1=SX1108405B.1.2 kv=0.208 Status=variable Model=5 Conn=wye kW= 28.3874479274956 pf=0.97 Vminpu=0.88
New Load.2221108405C0 phases=2 Bus1=SX1108405C.1.2 kv=0.208 Status=variable Model=5 Conn=wye kW= 27.8720742647274 pf=0.97 Vminpu=0.88

// some additional two-phase and single-phase loads
New Load.2221108406A0 phases=2 Bus1=SX1108406A.1.2 kv=0.208 Status=variable Model=5 Conn=wye kW= 19.9847298743482 pf=0.97 Vminpu=0.88
New Load.2221108406B0 phases=2 Bus1=SX1108406B.1.2 kv=0.208 Status=variable Model=5 Conn=wye kW= 22.4779274975337 pf=0.97 Vminpu=0.88
New Load.2221108407B0 phases=2 Bus1=SX1108407B.1.2 kv=0.208 Status=variable Model=5 Conn=wye kW= 41.8472843792233 pf=0.97 Vminpu=0.88
New Load.2226061820B0 phases=2 Bus1=SX1108410B.1.2 kv=0.208 Status=variable Model=5 Conn=wye kW= 61.3287642634872 pf=0.97 Vminpu=0.88


!New Loads for S2 New Neighborhood, assuming large homes with air conditioning, swimming pools, costco-size fridges, etc
!Large loads, lower power factor with rooftop PV to offset
New Load.2000402A0 phases=2 Bus1=SX2000402A.1.2 kv=0.208 Status=variable Model=5 Conn=wye kW=11.24 pf=0.87 Vminpu=0.88 
New Load.2000403A0 phases=2 Bus1=SX2000403A.1.2 kv=0.208 Status=variable Model=5 Conn=wye kW=12.55 pf=0.87 Vminpu=0.88 
New Load.2000404A0 phases=2 Bus1=SX2000404A.1.2 kv=0.208 Status=variable Model=5 Conn=wye kW= 9.71 pf=0.87 Vminpu=0.88 
New Load.2000405A0 phases=2 Bus1=SX2000405A.1.2 kv=0.208 Status=variable Model=5 Conn=wye kW=14.92 pf=0.87 Vminpu=0.88 
New Load.2000406A0 phases=2 Bus1=SX2000406A.1.2 kv=0.208 Status=variable Model=5 Conn=wye kW=12.59 pf=0.87 Vminpu=0.88 
New Load.2000407A0 phases=2 Bus1=SX2000407A.1.2 kv=0.208 Status=variable Model=5 Conn=wye kW=11.91 pf=0.87 Vminpu=0.88 
New Load.2000408A0 phases=2 Bus1=SX2000408A.1.2 kv=0.208 Status=variable Model=5 Conn=wye kW=12.43 pf=0.87 Vminpu=0.88 
New Load.2000409A0 phases=2 Bus1=SX2000409A.1.2 kv=0.208 Status=variable Model=5 Conn=wye kW=12.98 pf=0.87 Vminpu=0.88 
New Load.2000410A0 phases=2 Bus1=SX2000410A.1.2 kv=0.208 Status=variable Model=5 Conn=wye kW=14.49 pf=0.87 Vminpu=0.88 
New Load.2000411A0 phases=2 Bus1=SX2000411A.1.2 kv=0.208 Status=variable Model=5 Conn=wye kW= 9.98 pf=0.87 Vminpu=0.88 
New Load.2000412A0 phases=2 Bus1=SX2000412A.1.2 kv=0.208 Status=variable Model=5 Conn=wye kW=19.60 pf=0.87 Vminpu=0.88 
New Load.2000413A0 phases=2 Bus1=SX2000413A.1.2 kv=0.208 Status=variable Model=5 Conn=wye kW=10.62 pf=0.87 Vminpu=0.88 
New Load.2000414A0 phases=2 Bus1=SX2000414A.1.2 kv=0.208 Status=variable Model=5 Conn=wye kW=10.58 pf=0.87 Vminpu=0.88 
New Load.2000415A0 phases=2 Bus1=SX2000415A.1.2 kv=0.208 Status=variable Model=5 Conn=wye kW=10.77 pf=0.87 Vminpu=0.88 

New Load.2000702B0 phases=2 Bus1=SX2000702B.1.2 kv=0.208 Status=variable Model=5 Conn=wye kW=10.52 pf=0.87 Vminpu=0.88 
New Load.2000703B0 phases=2 Bus1=SX2000703B.1.2 kv=0.208 Status=variable Model=5 Conn=wye kW= 9.53 pf=0.87 Vminpu=0.88 
New Load.2000704B0 phases=2 Bus1=SX2000704B.1.2 kv=0.208 Status=variable Model=5 Conn=wye kW=10.22 pf=0.87 Vminpu=0.88 
New Load.2000705B0 phases=2 Bus1=SX2000705B.1.2 kv=0.208 Status=variable Model=5 Conn=wye kW= 9.67 pf=0.87 Vminpu=0.88 
New Load.2000706B0 phases=2 Bus1=SX2000706B.1.2 kv=0.208 Status=variable Model=5 Conn=wye kW=11.78 pf=0.87 Vminpu=0.88 
New Load.2000707B0 phases=2 Bus1=SX2000707B.1.2 kv=0.208 Status=variable Model=5 Conn=wye kW= 9.89 pf=0.87 Vminpu=0.88 
New Load.2000708B0 phases=2 Bus1=SX2000708B.1.2 kv=0.208 Status=variable Model=5 Conn=wye kW=12.22 pf=0.87 Vminpu=0.88 
New Load.2000709B0 phases=2 Bus1=SX2000709B.1.2 kv=0.208 Status=variable Model=5 Conn=wye kW= 8.71 pf=0.87 Vminpu=0.88 
New Load.2000710B0 phases=2 Bus1=SX2000710B.1.2 kv=0.208 Status=variable Model=5 Conn=wye kW=10.44 pf=0.87 Vminpu=0.88 
New Load.2000711B0 phases=2 Bus1=SX2000711B.1.2 kv=0.208 Status=variable Model=5 Conn=wye kW= 7.04 pf=0.87 Vminpu=0.88 
New Load.2000712B0 phases=2 Bus1=SX2000712B.1.2 kv=0.208 Status=variable Model=5 Conn=wye kW=11.19 pf=0.87 Vminpu=0.88 
New Load.2000713B0 phases=2 Bus1=SX2000713B.1.2 kv=0.208 Status=variable Model=5 Conn=wye kW=12.78 pf=0.87 Vminpu=0.88 
New Load.2000714B0 phases=2 Bus1=SX2000714B.1.2 kv=0.208 Status=variable Model=5 Conn=wye kW= 9.04 pf=0.87 Vminpu=0.88 
New Load.2000715B0 phases=2 Bus1=SX2000715B.1.2 kv=0.208 Status=variable Model=5 Conn=wye kW=11.24 pf=0.87 Vminpu=0.88 

New Load.2000902C0 phases=2 Bus1=SX2000902C.1.2 kv=0.208 Status=variable Model=5 Conn=wye kW=11.24 pf=0.87 Vminpu=0.88 
New Load.2000903C0 phases=2 Bus1=SX2000903C.1.2 kv=0.208 Status=variable Model=5 Conn=wye kW=12.55 pf=0.87 Vminpu=0.88 
New Load.2000904C0 phases=2 Bus1=SX2000904C.1.2 kv=0.208 Status=variable Model=5 Conn=wye kW= 9.71 pf=0.87 Vminpu=0.88 
New Load.2000905C0 phases=2 Bus1=SX2000905C.1.2 kv=0.208 Status=variable Model=5 Conn=wye kW=11.24 pf=0.87 Vminpu=0.88 
New Load.2000906C0 phases=2 Bus1=SX2000906C.1.2 kv=0.208 Status=variable Model=5 Conn=wye kW=11.24 pf=0.87 Vminpu=0.88 
New Load.2000907C0 phases=2 Bus1=SX2000907C.1.2 kv=0.208 Status=variable Model=5 Conn=wye kW=11.24 pf=0.87 Vminpu=0.88 
New Load.2000908C0 phases=2 Bus1=SX2000908C.1.2 kv=0.208 Status=variable Model=5 Conn=wye kW=11.24 pf=0.87 Vminpu=0.88 
New Load.2000909C0 phases=2 Bus1=SX2000909C.1.2 kv=0.208 Status=variable Model=5 Conn=wye kW=11.24 pf=0.87 Vminpu=0.88 
New Load.2000910C0 phases=2 Bus1=SX2000910C.1.2 kv=0.208 Status=variable Model=5 Conn=wye kW=11.24 pf=0.87 Vminpu=0.88 
New Load.2000911C0 phases=2 Bus1=SX2000911C.1.2 kv=0.208 Status=variable Model=5 Conn=wye kW=11.24 pf=0.87 Vminpu=0.88 
New Load.2000912C0 phases=2 Bus1=SX2000912C.1.2 kv=0.208 Status=variable Model=5 Conn=wye kW=11.24 pf=0.87 Vminpu=0.88 
New Load.2000913C0 phases=2 Bus1=SX2000913C.1.2 kv=0.208 Status=variable Model=5 Conn=wye kW=11.24 pf=0.87 Vminpu=0.88 
New Load.2000914C0 phases=2 Bus1=SX2000914C.1.2 kv=0.208 Status=variable Model=5 Conn=wye kW=11.24 pf=0.87 Vminpu=0.88 
New Load.2000915C0 phases=2 Bus1=SX2000915C.1.2 kv=0.208 Status=variable Model=5 Conn=wye kW=11.24 pf=0.87 Vminpu=0.88 

New Load.2001002B0 phases=2 Bus1=SX2001002B.1.2 kv=0.208 Status=variable Model=5 Conn=wye kW=11.24 pf=0.87 Vminpu=0.88 
New Load.2001003B0 phases=2 Bus1=SX2001003B.1.2 kv=0.208 Status=variable Model=5 Conn=wye kW=12.55 pf=0.87 Vminpu=0.88 
New Load.2001004B0 phases=2 Bus1=SX2001004B.1.2 kv=0.208 Status=variable Model=5 Conn=wye kW= 9.71 pf=0.87 Vminpu=0.88 
New Load.2001005B0 phases=2 Bus1=SX2001005B.1.2 kv=0.208 Status=variable Model=5 Conn=wye kW=11.07 pf=0.87 Vminpu=0.88 
New Load.2001006B0 phases=2 Bus1=SX2001006B.1.2 kv=0.208 Status=variable Model=5 Conn=wye kW= 9.76 pf=0.87 Vminpu=0.88 
New Load.2001007B0 phases=2 Bus1=SX2001007B.1.2 kv=0.208 Status=variable Model=5 Conn=wye kW= 9.36 pf=0.87 Vminpu=0.88 
New Load.2001008B0 phases=2 Bus1=SX2001008B.1.2 kv=0.208 Status=variable Model=5 Conn=wye kW=12.71 pf=0.87 Vminpu=0.88 
New Load.2001009B0 phases=2 Bus1=SX2001009B.1.2 kv=0.208 Status=variable Model=5 Conn=wye kW=13.96 pf=0.87 Vminpu=0.88 
New Load.2001010B0 phases=2 Bus1=SX2001010B.1.2 kv=0.208 Status=variable Model=5 Conn=wye kW=16.89 pf=0.87 Vminpu=0.88 
New Load.2001011B0 phases=2 Bus1=SX2001011B.1.2 kv=0.208 Status=variable Model=5 Conn=wye kW= 7.46 pf=0.87 Vminpu=0.88 
New Load.2001012B0 phases=2 Bus1=SX2001012B.1.2 kv=0.208 Status=variable Model=5 Conn=wye kW=13.75 pf=0.87 Vminpu=0.88 
New Load.2001013B0 phases=2 Bus1=SX2001013B.1.2 kv=0.208 Status=variable Model=5 Conn=wye kW=17.56 pf=0.87 Vminpu=0.88 
New Load.2001014B0 phases=2 Bus1=SX2001014B.1.2 kv=0.208 Status=variable Model=5 Conn=wye kW=28.25 pf=0.87 Vminpu=0.88 
New Load.2001015B0 phases=2 Bus1=SX2001015B.1.2 kv=0.208 Status=variable Model=5 Conn=wye kW=24.15 pf=0.87 Vminpu=0.88 

New Load.2001202C0 phases=2 Bus1=SX2001202C.1.2 kv=0.208 Status=variable Model=5 Conn=wye kW=12.42 pf=0.87 Vminpu=0.88 
New Load.2001203C0 phases=2 Bus1=SX2001203C.1.2 kv=0.208 Status=variable Model=5 Conn=wye kW=16.02 pf=0.87 Vminpu=0.88 
New Load.2001204C0 phases=2 Bus1=SX2001204C.1.2 kv=0.208 Status=variable Model=5 Conn=wye kW=12.94 pf=0.87 Vminpu=0.88 
New Load.2001205C0 phases=2 Bus1=SX2001205C.1.2 kv=0.208 Status=variable Model=5 Conn=wye kW= 8.55 pf=0.87 Vminpu=0.88 
New Load.2001206C0 phases=2 Bus1=SX2001206C.1.2 kv=0.208 Status=variable Model=5 Conn=wye kW=10.53 pf=0.87 Vminpu=0.88 
New Load.2001207C0 phases=2 Bus1=SX2001207C.1.2 kv=0.208 Status=variable Model=5 Conn=wye kW= 8.84 pf=0.87 Vminpu=0.88 
New Load.2001208C0 phases=2 Bus1=SX2001208C.1.2 kv=0.208 Status=variable Model=5 Conn=wye kW=11.88 pf=0.87 Vminpu=0.88 
New Load.2001209C0 phases=2 Bus1=SX2001209C.1.2 kv=0.208 Status=variable Model=5 Conn=wye kW=13.94 pf=0.87 Vminpu=0.88 
New Load.2001210C0 phases=2 Bus1=SX2001210C.1.2 kv=0.208 Status=variable Model=5 Conn=wye kW=13.43 pf=0.87 Vminpu=0.88 
New Load.2001211C0 phases=2 Bus1=SX2001211C.1.2 kv=0.208 Status=variable Model=5 Conn=wye kW=23.33 pf=0.87 Vminpu=0.88 
New Load.2001212C0 phases=2 Bus1=SX2001212C.1.2 kv=0.208 Status=variable Model=5 Conn=wye kW=17.88 pf=0.87 Vminpu=0.88 
New Load.2001213C0 phases=2 Bus1=SX2001213C.1.2 kv=0.208 Status=variable Model=5 Conn=wye kW=18.07 pf=0.87 Vminpu=0.88 
New Load.2001214C0 phases=2 Bus1=SX2001214C.1.2 kv=0.208 Status=variable Model=5 Conn=wye kW=16.88 pf=0.87 Vminpu=0.88 
New Load.2001215C0 phases=2 Bus1=SX2001215C.1.2 kv=0.208 Status=variable Model=5 Conn=wye kW=21.33 pf=0.87 Vminpu=0.88 

New Load.2001302A0 phases=2 Bus1=SX2001302A.1.2 kv=0.208 Status=variable Model=5 Conn=wye kW= 8.81 pf=0.87 Vminpu=0.88 
New Load.2001303A0 phases=2 Bus1=SX2001303A.1.2 kv=0.208 Status=variable Model=5 Conn=wye kW=12.91 pf=0.87 Vminpu=0.88 
New Load.2001304A0 phases=2 Bus1=SX2001304A.1.2 kv=0.208 Status=variable Model=5 Conn=wye kW= 9.62 pf=0.87 Vminpu=0.88 
New Load.2001305A0 phases=2 Bus1=SX2001305A.1.2 kv=0.208 Status=variable Model=5 Conn=wye kW=10.85 pf=0.87 Vminpu=0.88 
New Load.2001306A0 phases=2 Bus1=SX2001306A.1.2 kv=0.208 Status=variable Model=5 Conn=wye kW= 9.47 pf=0.87 Vminpu=0.88 
New Load.2001307A0 phases=2 Bus1=SX2001307A.1.2 kv=0.208 Status=variable Model=5 Conn=wye kW=13.98 pf=0.87 Vminpu=0.88 
New Load.2001308A0 phases=2 Bus1=SX2001308A.1.2 kv=0.208 Status=variable Model=5 Conn=wye kW=14.65 pf=0.87 Vminpu=0.88 
New Load.2001309A0 phases=2 Bus1=SX2001309A.1.2 kv=0.208 Status=variable Model=5 Conn=wye kW= 8.24 pf=0.87 Vminpu=0.88 
New Load.2001310A0 phases=2 Bus1=SX2001310A.1.2 kv=0.208 Status=variable Model=5 Conn=wye kW=18.14 pf=0.87 Vminpu=0.88 
New Load.2001311A0 phases=2 Bus1=SX2001311A.1.2 kv=0.208 Status=variable Model=5 Conn=wye kW=16.04 pf=0.87 Vminpu=0.88 
New Load.2001312A0 phases=2 Bus1=SX2001312A.1.2 kv=0.208 Status=variable Model=5 Conn=wye kW=14.53 pf=0.87 Vminpu=0.88 
New Load.2001313A0 phases=2 Bus1=SX2001313A.1.2 kv=0.208 Status=variable Model=5 Conn=wye kW=22.37 pf=0.87 Vminpu=0.88 
New Load.2001314A0 phases=2 Bus1=SX2001314A.1.2 kv=0.208 Status=variable Model=5 Conn=wye kW=21.35 pf=0.87 Vminpu=0.88 
New Load.2001315A0 phases=2 Bus1=SX2001315A.1.2 kv=0.208 Status=variable Model=5 Conn=wye kW=19.89 pf=0.87 Vminpu=0.88 

New Load.2001400C0 phases=2 Bus1=SX2001400C.1.2 kv=0.208 Status=variable Model=5 Conn=wye kW=40.51 pf=0.87 Vminpu=0.88 

